Grid Data Validation/Hawaiilatmissing.AUX
//--------------------------------------------------------------------------------
//CASE INFORMATION
//--------------------------------------------------------------------------------
PWCaseInformation (CountBus,BusMaxVoltID,BusMinVoltID,MismatchPmaxID,MismatchQmaxID,BusMaxVolt,
   BusMinVolt,MismatchPmax,MismatchQmax,CountArea,CountZone,LossMW,LossMvar,
   LoadMW,LoadMWNeg,LoadMvar,LoadMvarNeg,ShuntMvar,GenMW,GenMWNeg,GenMvar,
   GenMvarNeg,BranchMaxPerc,PTDFLoss,PVMonLoadMW,PVMonLoadMvar,PVMonGenMW,
   PVMonGenMVar,CustomFloat:0,CustomFloat:1,CustomFloat:2,CustomFloat:3,
   CustomFloat:4,CountInterface,GenCost,GenMWPosSpinRes,GenMWNegSpinRes,
   CustomExpression:0,CustomExpression:1,CountSub,Selected,CountMTDC,SlackBuses,
   ShuntMW,CaseName,CasePath,PVMonLossMW,PVMonLossMvar,Memo,CustomString:0,
   CustomString:1,CustomString:2,CustomString:3,CustomString:4,PVMonShuntMvar,
   PVMonShuntMW,CountIsland,CalcField:0,CountGen,CountLoad,CountShunt,CountLine,
   CountSeriesCap,CountLTC,CountLTCMvar,CountPhase,CountBreaker,CountDisconnect,
   CountZBR,CountFuse,CountLoadBreakDisconnect,CountGroundDisconnect,CountDCLine,
   CountInjectionGroup,TSSaveAll,CustomInteger:0,CustomInteger:1,CustomInteger:2,
   CustomInteger:3,CustomInteger:4,ContainedInDiffFlowsBC,CustomExpressionStr:0,
   CustomExpressionStr:1,BranchMaxPercID,CaseTimestamp,InOutage,RankOverload,
   TSSaveGenMW,TSSaveGenMvar,TSSaveLoadMW,TSSaveLoadMvar,TSSaveGenMWAccel,
   TSSaveGenMWMech,TSGenMW,TSGenMvar,TSLoadMW,TSLoadMvar,TSGenMWAccel,
   TSGenMWMech,TSSaveDSMetric,TSDSMetric,TSSaveDSLoadMWUnserved,
   TSDSLoadMWUnserved,DistMW,DistMvar,TSSaveGICTotalMvarLosses,
   TSGICTotalMvarLosses,TSSaveGICMaximumTransformerIeffectiveAmps,
   TSGICMaximumTransformerIeffectiveAmps,DataCheck:0,DataCheckAggr:0,
   SolutionDetail,CalcFieldExtra:0,CountContingency)
{
    37 "Bus '27'" "Bus '11'" "" "" 1.043 1.017 0.000 0.000      1      1 16.967 32.499 1136.290 0.000 0.000 0.000 -33.557 1153.257 0.000 -1.058 0.000 80.961 0.000 "NO " "NO " "NO " "NO " "" "" "" "" ""      0 4232.852 189.843 833.257 "" ""     31 "NO "      0 "WAIPAHU69 (23) in Area Oahu (1);" 0.000 "HawaiiTest shifted_scaled16.AUX" "G:\Shared drives\Blue Eye 1\aux files\" "NO " "NO " "" "" "" "" "" "" "NO " "NO "      1 ""     45     27      1     77      3      0      0      0      0      0      0      0      0      0      0      0 "NO " "" "" "" "" "" "NO " "" "" "Branch '27' '29' '1'" "" "NONE" 15.790 "NO " "NO " "NO " "NO " "NO " "NO " "" "" "" "" "" "" "NO " 0.000 "NO " 0.000 0.000 0.000 "NO " "" "NO " "" "" "" "Successful Power Flow Solution" ""     89
   <SUBDATA PWCaseHeader>
     //Case Description
   </SUBDATA>
}

DataGrid (Name,FilterPre,RowHeight,FontNonDefault,FontName,FontStyles,FontSize,FontColor,
   SortVariable,SortOrder,Filter,Zoom,FrozenCols,RemoveTrailingZeros)
{
"Contingency" "YES"     13 "NO " "Segoe UI" ""      8      0 "BranchMaxPerc" "High To Low" "" 100.000 -1 "NO "
   <SUBDATA ColumnInfo>
     "Name"                 267  8 1
     "Skip"                  50  8 1
     "Category"              50  8 1
     "Processed"             50  8 1
     "Solved"                50  8 1
     "RemedialActionInclude"  50  8 1
     "ScreenAllow"           50  8 1
     "PostCTGAuxFile"        50  8 1
     "LoadMWIslanded"        50  8 2
     "GenMWIslanded"         50  8 2
     "OccurredGlobalCount"   50  8 1
     "OccurredTransientCount"  50  8 1
     "OccurredRemedialCount"  50  8 1
     "ViolCustom"            50  8 1
     "Violations"            50  8 1
     "BranchMaxPerc"         50  8 1
     "MinVolt"               50  8 3
     "MaxVolt"               50  8 3
     "InterfaceMaxPerc"      50  8 1
     "BusPairAngleMax"       50  8 1
     "Memo"                 200  8 1
   </SUBDATA>
   <SUBDATA ColumnContourInfo>
   </SUBDATA>
"Substation" "YES"     13 "NO " "Segoe UI" ""      8      0 "" "High To Low" "" 100.000 -1 "NO "
   <SUBDATA ColumnInfo>
     "Longitude"             75  8 2
     "Latitude"              75  8 2
     "Rground"               75  8 2
     "Number"                75  8 2
     "Name"                  75  8 2
     "IDExtra"               75  8 2
     "AreaName"              75  8 2
     "ZoneName"              75  8 2
     "CountBus"              75  8 2
     "NomkVMax"             100  6 1
     "GenMW"                 75  8 2
     "GenMvar"               75  8 2
     "LoadMW"                75  8 2
     "LoadMvar"              75  8 2
     "ShuntMW"               75  8 2
     "ShuntMvar"             75  8 2
   </SUBDATA>
   <SUBDATA ColumnContourInfo>
   </SUBDATA>
"Gen" "YES"     13 "NO " "Segoe UI" ""      8      0 "FuelType" "High To Low" "" 100.000 -1 "NO "
   <SUBDATA ColumnInfo>
     "BusNum"                75  8 2
     "BusName"               75  8 2
     "ID"                    50  8 4
     "Status"                60  8 2
     "MW"                    75  8 2
     "Mvar"                  75  8 2
     "MWMin"                 75  8 2
     "MWMax"                 75  8 2
     "FuelType"             166  8 2
     "AGC"                   40  8 2
     "AVR"                   40  8 2
     "RegBusNum"             60  8 2
     "VoltSet"               60  8 5
     "MvarMin"               75  8 2
     "MvarMax"               75  8 2
     "EnforceMWLimit"        40  8 2
     "PartFact"              75  8 2
     "CostModel"             75  8 2
   </SUBDATA>
   <SUBDATA ColumnContourInfo>
   </SUBDATA>
"BranchTransformerOnlyGrid" "YES"     13 "NO " "Segoe UI" ""      8      0 "" "High To Low" "" 100.000 -1 "NO "
   <SUBDATA ColumnInfo>
     "SeriesCapInservice"    80  9 1
     "SeriesCap"             80  9 1
     "GICBlock"              92  9 1
     "GICCoilRFrom"          80  9 1
     "GICCoilRTo"            80  9 1
     "GICAutoXF"             80  9 1
     "XFConfiguration"       80  9 1
     "BusNumFrom"            80  9 1
     "BusNameFrom"           80  9 1
     "BusNumTo"              80  9 1
     "BusNameTo"             80  9 1
     "Circuit"               47  9 1
     "BranchDeviceType"      47  9 1
     "R"                     75  9 5
     "X"                     75  9 5
     "B"                     75  9 5
     "LimitMVAA"             75  9 1
     "LimitMVAB"             75  9 1
     "LimitMVAC"             75  9 1
   </SUBDATA>
   <SUBDATA ColumnContourInfo>
   </SUBDATA>
}

//--------------------------------------------------------------------------------
// DEFAULT DRAWING VALUES SETTINGS
//--------------------------------------------------------------------------------

DefDrawOneline (FontName,FontStyles,FontColor,SOFontSize,DFDoFontSize,SOSBackgroundColorToUse)
{
"Tahoma" "" 0 14 "YES" 16777215
}

DefDrawArea (SOData,SOColor,SOUseFillColor,SOFillColor,SOHeight,SOWidth,SOThickness,
   SOOrientation,LimitHighlightingUsed,LimitHighlightColor,
   LimitHighlightMagnification,SOField,SOField:1,SOField:2,SOField:3,SOField:4,
   SOField:5,SOField:6,SOField:7)
{
"Name" 0 "YES" 16763080 5.000000 10.000000 1 "Rectangle" "NO " 255 0 " - - - " " - - - " " - - - " " - - - " " - - - " " - - - " " - - - " " - - - "
}

DefDrawZone (SOData,SOColor,SOUseFillColor,SOFillColor,SOHeight,SOWidth,SOThickness,
   SOOrientation,LimitHighlightingUsed,LimitHighlightColor,
   LimitHighlightMagnification,SOField,SOField:1,SOField:2,SOField:3,SOField:4,
   SOField:5,SOField:6,SOField:7)
{
"Name" 0 "YES" 16763080 5.000000 10.000000 1 "Rectangle" "NO " 255 0 " - - - " " - - - " " - - - " " - - - " " - - - " " - - - " " - - - " " - - - "
}

DefDrawSuperArea (SOData,SOColor,SOUseFillColor,SOFillColor,SOHeight,SOWidth,SOThickness,
   SOOrientation,LimitHighlightingUsed,LimitHighlightColor,
   LimitHighlightMagnification,SOField,SOField:1,SOField:2,SOField:3,SOField:4,
   SOField:5,SOField:6,SOField:7)
{
"Name" 0 "YES" 16763080 5.000000 10.000000 1 "Rectangle" "NO " 255 0 " - - - " " - - - " " - - - " " - - - " " - - - " " - - - " " - - - " " - - - "
}

DefDrawBackground (SOColor,SOUseFillColor,SOFillColor,SOFontSize,SOThickness,LimitHighlightingUsed,
   LimitHighlightColor,LimitHighlightMagnification)
{
0 "NO " -1 14 1 "NO " 255 0
}

DefDrawBus (BusNomVolt,SOColor,SOUseFillColor,SOFillColor,SOSize,SOWidth,SOFontSize,
   SOThickness,SOStyle,SOOrientation,VoltGaugeColor,VoltGaugeMaxPU,
   VoltGaugeMinPU,VoltGaugeTargetPU,LimitHighlightingUsed,LimitHighlightColor,
   LimitHighlightMagnification,SOField,SOField:1,SOField:2,SOField:3,SOField:4,
   SOField:5,SOField:6,SOField:7)
{
600.00 0 "YES" 0 15.000000 0.400000 50 1 "Rectangle" "Right" 16711680 1.100000 0.900000 1.000000 "NO " 255 0 " - - - " " - - - " " - - - " " - - - " " - - - " "Name@0@0@0@0@1@" " - - - " " - - - "
400.00 0 "YES" 0 12.000000 0.300000 40 1 "Rectangle" "Right" 16711680 1.100000 0.900000 1.000000 "NO " 255 0 " - - - " " - - - " " - - - " " - - - " " - - - " "Name@0@0@0@0@1@" " - - - " " - - - "
300.00 0 "YES" 0 10.000000 0.300000 30 1 "Rectangle" "Right" 16711680 1.100000 0.900000 1.000000 "NO " 255 0 " - - - " " - - - " " - - - " " - - - " " - - - " "Name@0@0@0@0@1@" " - - - " " - - - "
200.00 0 "YES" 0 7.000000 0.200000 20 1 "Rectangle" "Right" 16711680 1.100000 0.900000 1.000000 "NO " 255 0 " - - - " " - - - " " - - - " " - - - " " - - - " "Name@0@0@0@0@1@" " - - - " " - - - "
100.00 0 "YES" 0 5.000000 0.200000 15 1 "Rectangle" "Right" 16711680 1.100000 0.900000 1.000000 "NO " 255 0 " - - - " " - - - " " - - - " " - - - " " - - - " "Name@0@0@0@0@1@" " - - - " " - - - "
  0.00 0 "YES" 0 3.000000 0.200000 10 1 "Rectangle" "Right" 16711680 1.100000 0.900000 1.000000 "NO " 255 0 " - - - " " - - - " " - - - " " - - - " " - - - " "Name@0@0@0@0@1@" " - - - " " - - - "
}

DefDrawGen (BusNomVolt,SOColor,SOUseFillColor,SOFillColor,UseRotorColor,RotorShapeColor,
   SOStyle,SOSize,SOWidth,SOFontSize,SOThickness,SOOrientation,
   LimitHighlightingUsed,LimitHighlightColor,LimitHighlightMagnification,SOField,
   SOField:1,SOField:2,SOField:3,SOField:4,SOField:5)
{
  0.00 0 "NO " -1 "NO " -1 "Dog Bone" 10.000000 7.500000 14 1 "Down" "NO " 255 0 " - - - " " - - - " "Gen MW@4@0@0@0@1@" "Gen MVAR@4@0@0@0@1@" " - - - " " - - - "
}

DefDrawInterface (SOColor,SOUseFillColor,SOFillColor,SOFontSize,SOPieSize,SOThickness,
   LimitHighlightingUsed,LimitHighlightColor,LimitHighlightMagnification,SOField,
   SOField:1,SOField:2,SOField:3,SOField:4,SOField:5)
{
0 "NO " -1 14 50.000000 1 "NO " 255 0 " - - - " " - - - " " - - - " " - - - " " - - - " " - - - "
}

DefDrawLineTransformer (BusNomVolt,SOColor,SOFontSize,SOThickness,SOCBSize,SOPieSize,SOXFMRSize,
   LineGaugeColor,SOStubSize,SOStubSpace,LimitHighlightingUsed,
   LimitHighlightColor,LimitHighlightMagnification,SOField,SOField:1,SOField:2,
   SOField:3,SOField:4,SOField:5,SOField:6,SOField:7,SOField:8,SOField:9)
{
600.00 65280 50 2 3.000000 70.000000 4.000000 16711680 4.000000 4.500000 "NO " 255 0 " - - - " " - - - " " - - - " " - - - " " - - - " " - - - " " - - - " " - - - " " - - - " " - - - "
400.00 33023 40 2 2.500000 50.000000 4.000000 16711680 3.300000 3.700000 "NO " 255 0 " - - - " " - - - " " - - - " " - - - " " - - - " " - - - " " - - - " " - - - " " - - - " " - - - "
300.00 255 30 1 2.000000 30.000000 3.000000 16711680 2.500000 3.000000 "NO " 255 0 " - - - " " - - - " " - - - " " - - - " " - - - " " - - - " " - - - " " - - - " " - - - " " - - - "
200.00 16744448 20 1 1.400000 15.000000 2.000000 16711680 1.700000 2.000000 "NO " 255 0 " - - - " " - - - " " - - - " " - - - " " - - - " " - - - " " - - - " " - - - " " - - - " " - - - "
100.00 0 15 1 1.000000 8.000000 1.500000 16711680 1.300000 1.500000 "NO " 255 0 " - - - " " - - - " " - - - " " - - - " " - - - " " - - - " " - - - " " - - - " " - - - " " - - - "
  0.00 32768 10 1 0.600000 3.000000 1.000000 16711680 0.800000 1.000000 "NO " 255 0 " - - - " " - - - " " - - - " " - - - " " - - - " " - - - " " - - - " " - - - " " - - - " " - - - "
}

DefDrawLoad (BusNomVolt,SOColor,SOSize,SOWidth,SOFontSize,SOThickness,SOOrientation,
   LimitHighlightingUsed,LimitHighlightColor,LimitHighlightMagnification,SOField,
   SOField:1,SOField:2,SOField:3,SOField:4,SOField:5)
{
  0.00 0 10.000000 3.750000 14 1 "Up" "NO " 255 0 " - - - " " - - - " "Load MW@4@0@0@0@1@" "Load MVAR@4@0@0@0@1@" " - - - " " - - - "
}

DefDrawShunt (BusNomVolt,SOColor,SOSize,SOWidth,SOFontSize,SOThickness,SOOrientation,
   LimitHighlightingUsed,LimitHighlightColor,LimitHighlightMagnification,SOField,
   SOField:1,SOField:2,SOField:3,SOField:4,SOField:5)
{
  0.00 0 10.000000 3.000000 14 1 "Up" "NO " 255 0 " - - - " " - - - " " - - - " "Shunt MVAR@5@1@0@0@1@" " - - - " " - - - "
}

DefDrawDFACTS (BusNomVolt,SOColor,SOUseFillColor,SOFillColor,SOFontSize,SOThickness,SOHeight,
   SOWidth,LimitHighlightingUsed,LimitHighlightColor,LimitHighlightMagnification,
   SOField,SOField:1,SOField:2,SOField:3,SOField:4,SOField:5,SOField:6,SOField:7)
{
  0.00 0 "YES" 16711680 14 1 2.000000 6.000000 "NO " 255 0 " - - - " " - - - " " - - - " " - - - " " - - - " " - - - " " - - - " " - - - "
}

DefDrawSubstation (BusNomVolt,SOColor,SOUseFillColor,SOFillColor,SOHeight,SOWidth,SOStyle,
   SOFontSize,SOThickness,LimitHighlightingUsed,LimitHighlightColor,
   LimitHighlightMagnification,SOField,SOField:1,SOField:2,SOField:3,SOField:4,
   SOField:5,SOField:6,SOField:7)
{
600.00 0 "YES" 65280 15.000000 30.000000 "UseSubLayout" 14 1 "NO " 255 0 "Name@0@0@0@0@1@" " - - - " " - - - " " - - - " " - - - " " - - - " " - - - " " - - - "
400.00 0 "YES" 33023 12.000000 24.000000 "UseSubLayout" 14 1 "NO " 255 0 "Name@0@0@0@0@1@" " - - - " " - - - " " - - - " " - - - " " - - - " " - - - " " - - - "
300.00 0 "YES" 255 10.000000 20.000000 "UseSubLayout" 14 1 "NO " 255 0 "Name@0@0@0@0@1@" " - - - " " - - - " " - - - " " - - - " " - - - " " - - - " " - - - "
200.00 0 "YES" 16744448 7.000000 14.000000 "UseSubLayout" 14 1 "NO " 255 0 "Name@0@0@0@0@1@" " - - - " " - - - " " - - - " " - - - " " - - - " " - - - " " - - - "
100.00 0 "YES" 8421504 5.000000 10.000000 "UseSubLayout" 14 1 "NO " 255 0 "Name@0@0@0@0@1@" " - - - " " - - - " " - - - " " - - - " " - - - " " - - - " " - - - "
  0.00 0 "YES" 32768 3.000000 6.000000 "UseSubLayout" 14 1 "NO " 255 0 "Name@0@0@0@0@1@" " - - - " " - - - " " - - - " " - - - " " - - - " " - - - " " - - - "
}

DefDrawMSLine (BusNomVolt,SOColor,SOFontSize,SOThickness,SOPieSize,SOStubSize,SOStubSpace,
   SOXFMRSize,SOPercent,LimitHighlightingUsed,LimitHighlightColor,
   LimitHighlightMagnification,SOField,SOField:1,SOField:2,SOField:3,SOField:4,
   SOField:5,SOField:6,SOField:7,SOField:8,SOField:9)
{
600.00 65280 50 2 70.000000 4.000000 4.500000 4.000000 15.000000 "NO " 255 0 " - - - " " - - - " " - - - " " - - - " " - - - " " - - - " " - - - " " - - - " " - - - " " - - - "
400.00 33023 40 2 50.000000 3.300000 3.700000 4.000000 15.000000 "NO " 255 0 " - - - " " - - - " " - - - " " - - - " " - - - " " - - - " " - - - " " - - - " " - - - " " - - - "
300.00 255 30 1 30.000000 2.500000 3.000000 3.000000 11.000000 "NO " 255 0 " - - - " " - - - " " - - - " " - - - " " - - - " " - - - " " - - - " " - - - " " - - - " " - - - "
200.00 16744448 20 1 15.000000 1.700000 2.000000 2.000000 8.000000 "NO " 255 0 " - - - " " - - - " " - - - " " - - - " " - - - " " - - - " " - - - " " - - - " " - - - " " - - - "
100.00 0 15 1 8.000000 1.300000 1.500000 1.500000 6.000000 "NO " 255 0 " - - - " " - - - " " - - - " " - - - " " - - - " " - - - " " - - - " " - - - " " - - - " " - - - "
  0.00 32768 10 1 3.000000 0.800000 1.000000 1.000000 4.000000 "NO " 255 0 " - - - " " - - - " " - - - " " - - - " " - - - " " - - - " " - - - " " - - - " " - - - " " - - - "
}

Owner (Number,Name,DataMaintainerAssign)
{
     1 "1" ""
}

Bus (Number,Name,NomkV,Vpu,Vangle,NomG,NomB,AreaNumber,ZoneNumber,BANumber,SubNumber,
   Slack,Status,CTGLoadThrowNum,CTGLoadThrowNameNomkV,LongName,kV,VangleRad,
   VpuReal,VpuImag,MargCostMW,MargCostMWEnergy,MargCostMWCong,MargCostMWLoss,
   MargCostMvar,MargCostMvarCong,MargCostMvarLoss,MargCostVolt,GenRemRegVoltSet,
   OwnerNumber,Equiv,Scale,TimeStepSelected,LimitSet,Monitor,UseSpecificLimits,
   LimitLowUsed,LimitHighUsed,OPFUnenforceableVolt,OPFVoltBinding,LossSensMW,
   LossSensMvar,DCLossMultiplier,Latitude,Longitude,LatitudeString,
   LongitudeString,Datum,PVMonVpu,PVMonKV,PVMonVangle,PVMonSensdVdQself,
   PVMonLoadMW,PVMonLoadMvar,PVMonShuntMvar,QVMinVolt,QVMaxVolt,QVStepSize,
   DataMaintainerAssign)
{
     1 "ALOHA138"     138.00 1.034004  -1.197635   0.0000   0.0000      1      1      1 1 "NO " "Connected" "" "" "newbus 138" 142.6926  -0.020903   1.0338  -0.0216   5.2237   5.0966   0.1271   0.0000   0.0006   0.0006   0.0000   0.0000 ""      1 "Study" "NO " "NO " "Default" "YES" "NO "   0.9000   1.1000 "   " "No"   0.0000   0.0000   1.0000 "" "" "" "" "" "NO " "NO " "NO " "NO " "NO " "NO " "NO "  0.100  1.100  0.010 ""
     2 "ALOHA69"      69.00 1.031956  -3.790540   0.0000   0.0000      1      1      1 1 "NO " "Connected" "" "" "newbus 138"  71.2050  -0.066157   1.0297  -0.0682   5.2542   5.0966   0.1576   0.0000   0.0017   0.0017   0.0000   0.0000 ""      1 "Study" "NO " "NO " "Default" "YES" "NO "   0.9000   1.1000 "   " "No"   0.0000   0.0000   1.0000 "" "" "" "" "" "NO " "NO " "NO " "NO " "NO " "NO " "NO "  0.100  1.100  0.010 ""
     3 "FLOWER69"     69.00 1.025623  -4.534503   0.0000   0.0000      1      1      1 2 "NO " "Connected" "" "" "newbus 138"  70.7680  -0.079142   1.0224  -0.0811   5.7103   5.0966   0.6137   0.0000  -0.0258  -0.0258   0.0000   0.0000 ""      1 "Study" "NO " "NO " "Default" "YES" "NO "   0.9000   1.1000 "   " "No"   0.0000   0.0000   1.0000 "" "" "" "" "" "NO " "NO " "NO " "NO " "NO " "NO " "NO "  0.100  1.100  0.010 ""
     4 "WAVE69"       69.00 1.020272  -5.471034   0.0000   0.0000      1      1      1 3 "NO " "Connected" "" "" "newbus 138"  70.3987  -0.095488   1.0156  -0.0973   5.4163   5.0966   0.3197   0.0000  -0.0091  -0.0091   0.0000   0.0000 ""      1 "Study" "NO " "NO " "Default" "YES" "NO "   0.9000   1.1000 "   " "No"   0.0000   0.0000   1.0000 "" "" "" "" "" "NO " "NO " "NO " "NO " "NO " "NO " "NO "  0.100  1.100  0.010 ""
     5 "HONOLULU138"  138.00 1.029762  -2.076506   0.0000   0.0000      1      1      1 4 "NO " "Connected" "" "" "newbus 138" 142.1072  -0.036242   1.0291  -0.0373   5.2804   5.0966   0.1838   0.0000   0.0003   0.0003   0.0000   0.0000 ""      1 "Study" "NO " "NO " "Default" "YES" "NO "   0.9000   1.1000 "   " "No"   0.0000   0.0000   1.0000 "" "" "" "" "" "NO " "NO " "NO " "NO " "NO " "NO " "NO "  0.100  1.100  0.010 ""
     6 "HONOLULU69"   69.00 1.022549  -5.269383   0.0000   0.0000      1      1      1 4 "NO " "Connected" "" "" "newbus 138"  70.5559  -0.091968   1.0182  -0.0939   5.4911   5.0966   0.3946   0.0000  -0.0030  -0.0030   0.0000   0.0000 ""      1 "Study" "NO " "NO " "Default" "YES" "NO "   0.9000   1.1000 "   " "No"   0.0000   0.0000   1.0000 "" "" "" "" "" "NO " "NO " "NO " "NO " "NO " "NO " "NO "  0.100  1.100  0.010 ""
     7 "SURF69"       69.00 1.021976  -5.401629   0.0000   0.0000      1      1      1 5 "NO " "Connected" "" "" "newbus 138"  70.5163  -0.094276   1.0174  -0.0962   5.4796   5.0966   0.3830   0.0000  -0.0014  -0.0014   0.0000   0.0000 ""      1 "Study" "NO " "NO " "Default" "YES" "NO "   0.9000   1.1000 "   " "No"   0.0000   0.0000   1.0000 "" "" "" "" "" "NO " "NO " "NO " "NO " "NO " "NO " "NO "  0.100  1.100  0.010 ""
     8 "KANEOHE69"    69.00 1.019897  -5.427106   0.0000   0.0000      1      1      1 6 "NO " "Connected" "" "" "newbus 138"  70.3729  -0.094721   1.0153  -0.0965   5.7500   5.0966   0.6534   0.0000  -0.0288  -0.0288   0.0000   0.0000 ""      1 "Study" "NO " "NO " "Default" "YES" "NO "   0.9000   1.1000 "   " "No"   0.0000   0.0000   1.0000 "" "" "" "" "" "NO " "NO " "NO " "NO " "NO " "NO " "NO "  0.100  1.100  0.010 ""
     9 "TURTLE138"    138.00 1.027692  -2.518949   0.0000   0.0000      1      1      1 7 "NO " "Connected" "" "" "newbus 138" 141.8215  -0.043964   1.0267  -0.0452   5.3077   5.0966   0.2111   0.0000  -0.0002  -0.0002   0.0000   0.0000 ""      1 "Study" "NO " "NO " "Default" "YES" "NO "   0.9000   1.1000 "   " "No"   0.0000   0.0000   1.0000 "" "" "" "" "" "NO " "NO " "NO " "NO " "NO " "NO " "NO "  0.100  1.100  0.010 ""
    10 "TURTLE69"     69.00 1.022314  -5.383213   0.0000   0.0000      1      1      1 7 "NO " "Connected" "" "" "newbus 138"  70.5397  -0.093955   1.0178  -0.0959   5.4668   5.0966   0.3702   0.0000   0.0035   0.0035   0.0000   0.0000 ""      1 "Study" "NO " "NO " "Default" "YES" "NO "   0.9000   1.1000 "   " "No"   0.0000   0.0000   1.0000 "" "" "" "" "" "NO " "NO " "NO " "NO " "NO " "NO " "NO "  0.100  1.100  0.010 ""
    11 "MAHALO69"     69.00 1.016563  -6.185474   0.0000   0.0000      1      1      1 8 "NO " "Connected" "" "" "newbus 138"  70.1428  -0.107957   1.0106  -0.1095   5.4990   5.0966   0.4024   0.0000   0.0001   0.0001   0.0000   0.0000 ""      1 "Study" "NO " "NO " "Default" "YES" "NO "   0.9000   1.1000 "   " "No"   0.0000   0.0000   1.0000 "" "" "" "" "" "NO " "NO " "NO " "NO " "NO " "NO " "NO "  0.100  1.100  0.010 ""
    12 "LYCHEE69"     69.00 1.018882  -5.887123   0.0000   0.0000      1      1      1 9 "NO " "Connected" "" "" "newbus 138"  70.3029  -0.102750   1.0135  -0.1045   5.5053   5.0966   0.4087   0.0000  -0.0004  -0.0004   0.0000   0.0000 ""      1 "Study" "NO " "NO " "Default" "YES" "NO "   0.9000   1.1000 "   " "No"   0.0000   0.0000   1.0000 "" "" "" "" "" "NO " "NO " "NO " "NO " "NO " "NO " "NO "  0.100  1.100  0.010 ""
    13 "COCONUT69"    69.00 1.020506  -5.793229   0.0000   0.0000      1      1      1 10 "NO " "Connected" "" "" "newbus 138"  70.4149  -0.101111   1.0153  -0.1030   5.4863   5.0966   0.3897   0.0000  -0.0032  -0.0032   0.0000   0.0000 ""      1 "Study" "NO " "NO " "Default" "YES" "NO "   0.9000   1.1000 "   " "No"   0.0000   0.0000   1.0000 "" "" "" "" "" "NO " "NO " "NO " "NO " "NO " "NO " "NO "  0.100  1.100  0.010 ""
    14 "KAILUA138"    138.00 1.024866  -3.061932   0.0000   0.0000      1      1      1 11 "NO " "Connected" "" "" "newbus 138" 141.4315  -0.053441   1.0234  -0.0547   5.3451   5.0966   0.2485   0.0000  -0.0011  -0.0011   0.0000   0.0000 ""      1 "Study" "NO " "NO " "Default" "YES" "NO "   0.9000   1.1000 "   " "No"   0.0000   0.0000   1.0000 "" "" "" "" "" "NO " "NO " "NO " "NO " "NO " "NO " "NO "  0.100  1.100  0.010 ""
    15 "KAILUA69"     69.00 1.020077  -5.729969   0.0000   0.0000      1      1      1 11 "NO " "Connected" "" "" "newbus 138"  70.3853  -0.100007   1.0150  -0.1018   5.5141   5.0966   0.4175   0.0000   0.0105   0.0105   0.0000   0.0000 ""      1 "Study" "NO " "NO " "Default" "YES" "NO "   0.9000   1.1000 "   " "No"   0.0000   0.0000   1.0000 "" "" "" "" "" "NO " "NO " "NO " "NO " "NO " "NO " "NO "  0.100  1.100  0.010 ""
    16 "PALM69"       69.00 1.024037  -6.135252   0.0000   0.0000      1      1      1 12 "NO " "Connected" "" "" "newbus 138"  70.6585  -0.107080   1.0182  -0.1094   5.5578   5.0966   0.4612   0.0000  -0.0134  -0.0134   0.0000   0.0000 ""      1 "Study" "NO " "NO " "Default" "YES" "NO "   0.9000   1.1000 "   " "No"   0.0000   0.0000   1.0000 "" "" "" "" "" "NO " "NO " "NO " "NO " "NO " "NO " "NO "  0.100  1.100  0.010 ""
    17 "WAIMANALO69"  69.00 1.017382  -6.613220   0.0000   0.0000      1      1      1 13 "NO " "Connected" "" "" "newbus 138"  70.1993  -0.115422   1.0106  -0.1172   5.5342   5.0966   0.4376   0.0000  -0.0064  -0.0064   0.0000   0.0000 ""      1 "Study" "NO " "NO " "Default" "YES" "NO "   0.9000   1.1000 "   " "No"   0.0000   0.0000   1.0000 "" "" "" "" "" "NO " "NO " "NO " "NO " "NO " "NO " "NO "  0.100  1.100  0.010 ""
    18 "VOLCANO69"    69.00 1.017936  -6.743498   0.0000   0.0000      1      1      1 14 "NO " "Connected" "" "" "newbus 138"  70.2376  -0.117696   1.0109  -0.1195   5.5463   5.0966   0.4497   0.0000  -0.0090  -0.0090   0.0000   0.0000 ""      1 "Study" "NO " "NO " "Default" "YES" "NO "   0.9000   1.1000 "   " "No"   0.0000   0.0000   1.0000 "" "" "" "" "" "NO " "NO " "NO " "NO " "NO " "NO " "NO "  0.100  1.100  0.010 ""
    19 "PEARL CITY69" 69.00 1.031888  -3.409178   0.0000   0.0000      1      1      1 15 "NO " "Connected" "" "" "newbus 138"  71.2003  -0.059501   1.0301  -0.0614   5.8934   5.0966   0.7969   0.0000  -0.0419  -0.0419   0.0000   0.0000 ""      1 "Study" "NO " "NO " "Default" "YES" "NO "   0.9000   1.1000 "   " "No"   0.0000   0.0000   1.0000 "" "" "" "" "" "NO " "NO " "NO " "NO " "NO " "NO " "NO "  0.100  1.100  0.010 ""
    20 "MILILANI69"   69.00 1.030153  -1.970051   0.0000   0.0000      1      1      1 16 "NO " "Connected" "" "" "newbus 138"  71.0805  -0.034384   1.0295  -0.0354   7.0672   5.0966   1.9706   0.0000  -0.1800  -0.1800   0.0000   0.0000 ""      1 "Study" "NO " "NO " "Default" "YES" "NO "   0.9000   1.1000 "   " "No"   0.0000   0.0000   1.0000 "" "" "" "" "" "NO " "NO " "NO " "NO " "NO " "NO " "NO "  0.100  1.100  0.010 ""
    21 "AIEA69"       69.00 1.021189  -5.028184   0.0000   0.0000      1      1      1 17 "NO " "Connected" "" "" "newbus 138"  70.4620  -0.087758   1.0173  -0.0895   5.5402   5.0966   0.4436   0.0000  -0.0101  -0.0101   0.0000   0.0000 ""      1 "Study" "NO " "NO " "Default" "YES" "NO "   0.9000   1.1000 "   " "No"   0.0000   0.0000   1.0000 "" "" "" "" "" "NO " "NO " "NO " "NO " "NO " "NO " "NO "  0.100  1.100  0.010 ""
    22 "WAIPAHU138"   138.00 1.036654  -0.941776   0.0000   0.0000      1      1      1 18 "NO " "Connected" "" "" "newbus 138" 143.0583  -0.016437   1.0365  -0.0170   5.1862   5.0966   0.0897   0.0000   0.0021   0.0021   0.0000   0.0000 ""      1 "Study" "NO " "NO " "Default" "YES" "NO "   0.9000   1.1000 "   " "No"   0.0000   0.0000   1.0000 "" "" "" "" "" "NO " "NO " "NO " "NO " "NO " "NO " "NO "  0.100  1.100  0.010 ""
    23 "WAIPAHU69"    69.00 1.040000  -2.106015   0.0000   0.0000      1      1      1 18 "YES" "Connected" "" "" "newbus 138"  71.7600  -0.036757   1.0393  -0.0382   5.0966   5.0966   0.0000   0.0000 "Slack Bus" "Slack Bus" "Slack Bus"   0.0000 ""      1 "Study" "NO " "NO " "Default" "YES" "NO "   0.9000   1.1000 "   " "No"   0.0000   0.0000   1.0000 "" "" "" "" "" "NO " "NO " "NO " "NO " "NO " "NO " "NO "  0.100  1.100  0.010 ""
    24 "KAPOLEI69"    69.00 1.033913  -3.584931   0.0000   0.0000      1      1      1 19 "NO " "Connected" "" "" "newbus 138"  71.3400  -0.062569   1.0319  -0.0646   4.5881   5.0966  -0.5085   0.0000  -0.0473  -0.0473   0.0000   0.0000 ""      1 "Study" "NO " "NO " "Default" "YES" "NO "   0.9000   1.1000 "   " "No"   0.0000   0.0000   1.0000 "" "" "" "" "" "NO " "NO " "NO " "NO " "NO " "NO " "NO "  0.100  1.100  0.010 ""
    25 "EWA BEACH138" 138.00 1.036865  -0.650224   0.0000   0.0000      1      1      1 20 "NO " "Connected" "" "" "newbus 138" 143.0873  -0.011349   1.0368  -0.0118   5.1954   5.0966   0.0988   0.0000   0.0009   0.0009   0.0000   0.0000 ""      1 "Study" "NO " "NO " "Default" "YES" "NO "   0.9000   1.1000 "   " "No"   0.0000   0.0000   1.0000 "" "" "" "" "" "NO " "NO " "NO " "NO " "NO " "NO " "NO "  0.100  1.100  0.010 ""
    26 "EWA BEACH69"  69.00 1.035597  -3.483817   0.0000   0.0000      1      1      1 20 "NO " "Connected" "" "" "newbus 138"  71.4562  -0.060804   1.0337  -0.0629   4.9304   5.0966  -0.1662   0.0000  -0.0198  -0.0198   0.0000   0.0000 ""      1 "Study" "NO " "NO " "Default" "YES" "NO "   0.9000   1.1000 "   " "No"   0.0000   0.0000   1.0000 "" "" "" "" "" "NO " "NO " "NO " "NO " "NO " "NO " "NO "  0.100  1.100  0.010 ""
    27 "KAHUKU69"     69.00 1.043428   1.105445   0.0000   0.0000      1      1      1 21 "NO " "Connected" "" "" "newbus 138"  71.9965   0.019294   1.0432   0.0201   7.7776   5.0966   2.6810   0.0000  -0.1047  -0.1047   0.0000   0.0000 ""      1 "Study" "NO " "NO " "Default" "YES" "NO "   0.9000   1.1000 "   " "No"   0.0000   0.0000   1.0000 "" "" "" "" "" "NO " "NO " "NO " "NO " "NO " "NO " "NO "  0.100  1.100  0.010 ""
    28 "HALEIWA69"    69.00 1.040000   0.064775   0.0000   0.0000      1      1      1 22 "NO " "Connected" "" "" "newbus 138"  71.7600   0.001131   1.0400   0.0012   0.0000   5.0966  -5.0966   0.0000 "PV Bus" "PV Bus" "PV Bus"   0.0000 ""      1 "Study" "NO " "NO " "Default" "YES" "NO "   0.9000   1.1000 "   " "No"   0.0000   0.0000   1.0000 "" "" "" "" "" "NO " "NO " "NO " "NO " "NO " "NO " "NO "  0.100  1.100  0.010 ""
    29 "LAIE69"       69.00 1.035677  -0.243828   0.0000   0.0000      1      1      1 23 "NO " "Connected" "" "" "newbus 138"  71.4617  -0.004256   1.0357  -0.0044   7.8367   5.0966   2.7402   0.0000  -0.1175  -0.1175   0.0000   0.0000 ""      1 "Study" "NO " "NO " "Default" "YES" "NO "   0.9000   1.1000 "   " "No"   0.0000   0.0000   1.0000 "" "" "" "" "" "NO " "NO " "NO " "NO " "NO " "NO " "NO "  0.100  1.100  0.010 ""
    30 "WAHIAWA69"    69.00 1.036015  -0.543130   0.0000   0.0000      1      1      1 24 "NO " "Connected" "" "" "newbus 138"  71.4851  -0.009479   1.0360  -0.0098   8.1441   5.0966   3.0475   0.0000  -0.1039  -0.1039   0.0000   0.0000 ""      1 "Study" "NO " "NO " "Default" "YES" "NO "   0.9000   1.1000 "   " "No"   0.0000   0.0000   1.0000 "" "" "" "" "" "NO " "NO " "NO " "NO " "NO " "NO " "NO "  0.100  1.100  0.010 ""
    31 "WAIALUA69"    69.00 1.035559  -2.098946   0.0000   0.0000      1      1      1 25 "NO " "Connected" "" "" "newbus 138"  71.4536  -0.036634   1.0349  -0.0379   2.5784   5.0966  -2.5182   0.0000   0.0752   0.0752   0.0000   0.0000 ""      1 "Study" "NO " "NO " "Default" "YES" "NO "   0.9000   1.1000 "   " "No"   0.0000   0.0000   1.0000 "" "" "" "" "" "NO " "NO " "NO " "NO " "NO " "NO " "NO "  0.100  1.100  0.010 ""
    32 "HAUULA69"     69.00 1.031672  -1.375741   0.0000   0.0000      1      1      1 26 "NO " "Connected" "" "" "newbus 138"  71.1854  -0.024011   1.0314  -0.0248   7.3737   5.0966   2.2771   0.0000  -0.1601  -0.1601   0.0000   0.0000 ""      1 "Study" "NO " "NO " "Default" "YES" "NO "   0.9000   1.1000 "   " "No"   0.0000   0.0000   1.0000 "" "" "" "" "" "NO " "NO " "NO " "NO " "NO " "NO " "NO "  0.100  1.100  0.010 ""
    33 "WAIANAE69"    69.00 1.035985  -2.976906   0.0000   0.0000      1      1      1 27 "NO " "Connected" "" "" "newbus 138"  71.4829  -0.051957   1.0346  -0.0538   4.1397   5.0966  -0.9569   0.0000  -0.0108  -0.0108   0.0000   0.0000 ""      1 "Study" "NO " "NO " "Default" "YES" "NO "   0.9000   1.1000 "   " "No"   0.0000   0.0000   1.0000 "" "" "" "" "" "NO " "NO " "NO " "NO " "NO " "NO " "NO "  0.100  1.100  0.010 ""
    34 "SCHOFIELD69"  69.00 1.040000  -2.082915   0.0000   0.0000      1      1      1 28 "NO " "Connected" "" "" "newbus 138"  71.7600  -0.036354   1.0393  -0.0378   4.6192   5.0966  -0.4773   0.0000 "PV Bus" "PV Bus" "PV Bus"   0.0000 ""      1 "Study" "NO " "NO " "Default" "YES" "NO "   0.9000   1.1000 "   " "No"   0.0000   0.0000   1.0000 "" "" "" "" "" "NO " "NO " "NO " "NO " "NO " "NO " "NO "  0.100  1.100  0.010 ""
    35 "KALAELOA138"  138.00 1.040000   0.187745   0.0000   0.0000      1      1      1 29 "NO " "Connected" "" "" "newbus 138" 143.5200   0.003277   1.0400   0.0034   5.2009   5.0966   0.1043   0.0000 "PV Bus" "PV Bus" "PV Bus"   0.0000 ""      1 "Study" "NO " "NO " "Default" "YES" "NO "   0.9000   1.1000 "   " "No"   0.0000   0.0000   1.0000 "" "" "" "" "" "NO " "NO " "NO " "NO " "NO " "NO " "NO "  0.100  1.100  0.010 ""
    36 "COGEN69"      69.00 1.036963  -3.454245   0.0000   0.0000      1      1      1 30 "NO " "Connected" "" "" "newbus 138"  71.5505  -0.060288   1.0351  -0.0625   4.5898   5.0966  -0.5068   0.0000  -0.0464  -0.0464   0.0000   0.0000 ""      1 "Study" "NO " "NO " "Default" "YES" "NO "   0.9000   1.1000 "   " "No"   0.0000   0.0000   1.0000 "" "" "" "" "" "NO " "NO " "NO " "NO " "NO " "NO " "NO "  0.100  1.100  0.010 ""
    37 "KAHE138"      138.00 1.040000   0.072204   0.0000   0.0000      1      1      1 31 "NO " "Connected" "" "" "newbus 138" 143.5200   0.001260   1.0400   0.0013   5.1971   5.0966   0.1005   0.0000 "PV Bus" "PV Bus" "PV Bus"   0.0000 ""      1 "Study" "NO " "NO " "Default" "YES" "NO "   0.9000   1.1000 "   " "No"   0.0000   0.0000   1.0000 "" "" "" "" "" "NO " "NO " "NO " "NO " "NO " "NO " "NO "  0.100  1.100  0.010 ""
}

Load (BusNum,ID,Status,SMW,SMvar,IMW,IMvar,ZMW,ZMvar,DistStatus,DistMWInput,
   DistMvarInput,AreaNumber,ZoneNumber,BANumber,AGC,OwnerNumber,
   DataMaintainerAssign)
{
     2 "1 " "Closed"    60.700     0.000     0.000     0.000     0.000     0.000 "Closed"     0.000     0.000      1      1      1 "YES"      1 ""
     3 "1 " "Closed"    59.390     0.000     0.000     0.000     0.000     0.000 "Closed"     0.000     0.000      1      1      1 "YES"      1 ""
     4 "1 " "Closed"    22.470     0.000     0.000     0.000     0.000     0.000 "Closed"     0.000     0.000      1      1      1 "YES"      1 ""
     6 "1 " "Closed"    27.460     0.000     0.000     0.000     0.000     0.000 "Closed"     0.000     0.000      1      1      1 "YES"      1 ""
     7 "1 " "Closed"    37.010     0.000     0.000     0.000     0.000     0.000 "Closed"     0.000     0.000      1      1      1 "YES"      1 ""
     8 "1 " "Closed"    65.100     0.000     0.000     0.000     0.000     0.000 "Closed"     0.000     0.000      1      1      1 "YES"      1 ""
    10 "1 " "Closed"    37.760     0.000     0.000     0.000     0.000     0.000 "Closed"     0.000     0.000      1      1      1 "YES"      1 ""
    11 "1 " "Closed"    65.550     0.000     0.000     0.000     0.000     0.000 "Closed"     0.000     0.000      1      1      1 "YES"      1 ""
    12 "1 " "Closed"    54.010     0.000     0.000     0.000     0.000     0.000 "Closed"     0.000     0.000      1      1      1 "YES"      1 ""
    13 "1 " "Closed"    59.240     0.000     0.000     0.000     0.000     0.000 "Closed"     0.000     0.000      1      1      1 "YES"      1 ""
    15 "1 " "Closed"    60.900     0.000     0.000     0.000     0.000     0.000 "Closed"     0.000     0.000      1      1      1 "YES"      1 ""
    16 "1 " "Closed"    23.830     0.000     0.000     0.000     0.000     0.000 "Closed"     0.000     0.000      1      1      1 "YES"      1 ""
    17 "1 " "Closed"    12.040     0.000     0.000     0.000     0.000     0.000 "Closed"     0.000     0.000      1      1      1 "YES"      1 ""
    18 "1 " "Closed"    36.320     0.000     0.000     0.000     0.000     0.000 "Closed"     0.000     0.000      1      1      1 "YES"      1 ""
    19 "1 " "Closed"    48.600     0.000     0.000     0.000     0.000     0.000 "Closed"     0.000     0.000      1      1      1 "YES"      1 ""
    20 "1 " "Closed"    64.950     0.000     0.000     0.000     0.000     0.000 "Closed"     0.000     0.000      1      1      1 "YES"      1 ""
    21 "1 " "Closed"    48.340     0.000     0.000     0.000     0.000     0.000 "Closed"     0.000     0.000      1      1      1 "YES"      1 ""
    23 "1 " "Closed"    86.750     0.000     0.000     0.000     0.000     0.000 "Closed"     0.000     0.000      1      1      1 "YES"      1 ""
    24 "1 " "Closed"    46.580     0.000     0.000     0.000     0.000     0.000 "Closed"     0.000     0.000      1      1      1 "YES"      1 ""
    26 "1 " "Closed"    75.280     0.000     0.000     0.000     0.000     0.000 "Closed"     0.000     0.000      1      1      1 "YES"      1 ""
    27 "1 " "Closed"     3.950     0.000     0.000     0.000     0.000     0.000 "Closed"     0.000     0.000      1      1      1 "YES"      1 ""
    28 "1 " "Closed"     8.820     0.000     0.000     0.000     0.000     0.000 "Closed"     0.000     0.000      1      1      1 "YES"      1 ""
    29 "1 " "Closed"     7.700     0.000     0.000     0.000     0.000     0.000 "Closed"     0.000     0.000      1      1      1 "YES"      1 ""
    30 "1 " "Closed"    49.030     0.000     0.000     0.000     0.000     0.000 "Closed"     0.000     0.000      1      1      1 "YES"      1 ""
    31 "1 " "Closed"     9.620     0.000     0.000     0.000     0.000     0.000 "Closed"     0.000     0.000      1      1      1 "YES"      1 ""
    32 "1 " "Closed"     6.670     0.000     0.000     0.000     0.000     0.000 "Closed"     0.000     0.000      1      1      1 "YES"      1 ""
    33 "1 " "Closed"    58.220     0.000     0.000     0.000     0.000     0.000 "Closed"     0.000     0.000      1      1      1 "YES"      1 ""
}

Gen (BusNum,ID,Status,MW,Mvar,AGC,EnforceMWLimit,MWMin,MWMax,PartFact,AVR,VoltSet,
   RegBusNum,MvarMin,MvarMax,RegFactor,UseCapCurve,UseLineDrop,Rcomp,Xcomp,
   MVABase,GenR,GenX,StepR,StepX,StepTap,AreaNumber,ZoneNumber,BANumber,
   CTGMaxResp,CTGMaxRespPerc,CTGPreventAGC,GovRespLimit,TimeStepOrgMWMin,
   TimeStepOrgMWMax,FuelTypeCode,UnitTypeCode,FixedCostDep,CubicB,CubicC,CubicD,
   VariableOM,CostShift,FuelCostExtra,CostMultiplier,FuelCost,OPFAGC,
   OPFFastStart,TimeStepSelected,PVMonMW,PVMonMvar,PVMonMvarReserve,OwnerNum1,
   OwnerPerc1,OwnerNum2,OwnerPerc2,OwnerNum3,OwnerPerc3,OwnerNum4,OwnerPerc4,
   OwnerNum5,OwnerPerc5,OwnerNum6,OwnerPerc6,OwnerNum7,OwnerPerc7,OwnerNum8,
   OwnerPerc8,DataMaintainerAssign,CustomFloat:0,CustomFloat:1,CustomFloat:2)
{
     2 "1" "Closed"    2.5000    0.8000 "YES" "YES"    1.0000    2.5000    0.0000 "YES" 1.040000      2   -0.5000    0.8000  100.0000 "NO " "NO"       0.000  0.000    2.8000   0.00000   1.00000   0.00000   0.00000   1.00000      1      1      1 "" "" "NO" "Normal"      1.0000   2.5000 "OBL" "UN"   0.0000   4.5700   0.0029   0.0000   0.0000   0.0000   0.0000   1.0000   1.0000 "If Agcable" "NO " "NO " "NO " "NO " "NO "      1 100.0000 "" "" "" "" "" "" "" "" "" "" "" "" "" "" ""     0.000000     0.000000     0.000000
     2 "2" "Closed"    2.5000    0.8000 "YES" "YES"    1.0000    2.5000    0.0000 "YES" 1.040000      2   -0.5000    0.8000  100.0000 "NO " "NO"       0.000  0.000    2.8000   0.00000   1.00000   0.00000   0.00000   1.00000      1      1      1 "" "" "NO" "Normal"      1.0000   2.5000 "OBL" "UN"   0.0000   4.5700   0.0022   0.0000   0.0000   0.0000   0.0000   1.0000   1.0000 "If Agcable" "NO " "NO " "NO " "NO " "NO "      1 100.0000 "" "" "" "" "" "" "" "" "" "" "" "" "" "" ""     0.000000     0.000000     0.000000
     2 "3" "Closed"    2.5000    0.8000 "YES" "YES"    1.0000    2.5000    0.0000 "YES" 1.040000      2   -0.5000    0.8000  100.0000 "NO " "NO"       0.000  0.000    2.8000   0.00000   1.00000   0.00000   0.00000   1.00000      1      1      1 "" "" "NO" "Normal"      1.0000   2.5000 "OBL" "UN"   0.0000   4.5700   0.0021   0.0000   0.0000   0.0000   0.0000   1.0000   1.0000 "If Agcable" "NO " "NO " "NO " "NO " "NO "      1 100.0000 "" "" "" "" "" "" "" "" "" "" "" "" "" "" ""     0.000000     0.000000     0.000000
     2 "4" "Closed"    2.5000    0.8000 "YES" "YES"    1.0000    2.5000    0.0000 "YES" 1.040000      2   -0.5000    0.8000  100.0000 "NO " "NO"       0.000  0.000    2.8000   0.00000   1.00000   0.00000   0.00000   1.00000      1      1      1 "" "" "NO" "Normal"      1.0000   2.5000 "OBL" "UN"   0.0000   4.5700   0.0023   0.0000   0.0000   0.0000   0.0000   1.0000   1.0000 "If Agcable" "NO " "NO " "NO " "NO " "NO "      1 100.0000 "" "" "" "" "" "" "" "" "" "" "" "" "" "" ""     0.000000     0.000000     0.000000
    23 "1" "Closed"   69.0594   -0.4848 "YES" "YES"   20.0000   77.8000    0.0000 "YES" 1.040000     23  -14.0000   23.3000  100.0000 "NO " "NO"       0.000  0.000   85.6000   0.00000   1.00000   0.00000   0.00000   1.00000      1      1      1 "" "" "NO" "Normal"     20.0000  77.8000 "DFO" "UN"   0.0000   4.6800   0.0038   0.0000   0.0000   0.0000   0.0000   1.0000   1.0000 "If Agcable" "NO " "NO " "NO " "NO " "NO "      1 100.0000 "" "" "" "" "" "" "" "" "" "" "" "" "" "" ""     0.000000     0.000000     0.000000
    23 "10" "Closed"   38.9589   -0.4848 "YES" "YES"    0.0000   45.9000    0.0000 "YES" 1.040000     23   -8.3000   13.8000  100.0000 "NO " "NO"       0.000  0.000   50.5000   0.00000   1.00000   0.00000   0.00000   1.00000      1      1      1 "" "" "NO" "Normal"      0.0000  45.9000 "SUN" "UN"   0.0000   0.0000   0.0000   0.0000   0.0000   0.0000   0.0000   1.0000   1.0000 "If Agcable" "NO " "NO " "NO " "NO " "NO "      1 100.0000 "" "" "" "" "" "" "" "" "" "" "" "" "" "" ""     0.000000     0.000000     0.000000
    23 "2" "Closed"   69.0594   -0.4848 "YES" "YES"   20.0000   77.8000    0.0000 "YES" 1.040000     23  -14.0000   23.3000  100.0000 "NO " "NO"       0.000  0.000   85.6000   0.00000   1.00000   0.00000   0.00000   1.00000      1      1      1 "" "" "NO" "Normal"     20.0000  77.8000 "DFO" "UN"   0.0000   4.6800   0.0045   0.0000   0.0000   0.0000   0.0000   1.0000   1.0000 "If Agcable" "NO " "NO " "NO " "NO " "NO "      1 100.0000 "" "" "" "" "" "" "" "" "" "" "" "" "" "" ""     0.000000     0.000000     0.000000
    23 "3" "Closed"   47.5297   -0.4848 "YES" "YES"   23.0000   51.9000    0.0000 "YES" 1.040000     23   -9.4000   15.6000  100.0000 "NO " "NO"       0.000  0.000   57.1000   0.00000   1.00000   0.00000   0.00000   1.00000      1      1      1 "" "" "NO" "Normal"     23.0000  51.9000 "DFO" "UN"   0.0000   4.6400   0.0038   0.0000   0.0000   0.0000   0.0000   1.0000   1.0000 "If Agcable" "NO " "NO " "NO " "NO " "NO "      1 100.0000 "" "" "" "" "" "" "" "" "" "" "" "" "" "" ""     0.000000     0.000000     0.000000
    23 "4" "Closed"   46.9911   -0.4848 "YES" "YES"   20.0000   51.8000    0.0000 "YES" 1.040000     23   -9.3000   15.5000  100.0000 "NO " "NO"       0.000  0.000   57.0000   0.00000   1.00000   0.00000   0.00000   1.00000      1      1      1 "" "" "NO" "Normal"     20.0000  51.8000 "DFO" "UN"   0.0000   4.6400   0.0036   0.0000   0.0000   0.0000   0.0000   1.0000   1.0000 "If Agcable" "NO " "NO " "NO " "NO " "NO "      1 100.0000 "" "" "" "" "" "" "" "" "" "" "" "" "" "" ""     0.000000     0.000000     0.000000
    23 "5" "Closed"   44.3648   -0.4848 "YES" "YES"    6.0000   51.2000    0.0000 "YES" 1.040000     23   -9.2000   15.4000  100.0000 "NO " "NO"       0.000  0.000   56.3000   0.00000   1.00000   0.00000   0.00000   1.00000      1      1      1 "" "" "NO" "Normal"      6.0000  51.2000 "DFO" "UN"   0.0000   4.6400   0.0031   0.0000   0.0000   0.0000   0.0000   1.0000   1.0000 "If Agcable" "NO " "NO " "NO " "NO " "NO "      1 100.0000 "" "" "" "" "" "" "" "" "" "" "" "" "" "" ""     0.000000     0.000000     0.000000
    23 "6" "Closed"   44.3648   -0.4848 "YES" "YES"    6.0000   51.2000    0.0000 "YES" 1.040000     23   -9.2000   15.4000  100.0000 "NO " "NO"       0.000  0.000   56.3000   0.00000   1.00000   0.00000   0.00000   1.00000      1      1      1 "" "" "NO" "Normal"      6.0000  51.2000 "DFO" "UN"   0.0000   4.6400   0.0030   0.0000   0.0000   0.0000   0.0000   1.0000   1.0000 "If Agcable" "NO " "NO " "NO " "NO " "NO "      1 100.0000 "" "" "" "" "" "" "" "" "" "" "" "" "" "" ""     0.000000     0.000000     0.000000
    23 "7" "Closed"   43.5112   -0.4848 "YES" "YES"   20.0000   47.7000    0.0000 "YES" 1.040000     23   -8.6000   14.3000  100.0000 "NO " "NO"       0.000  0.000   52.5000   0.00000   1.00000   0.00000   0.00000   1.00000      1      1      1 "" "" "NO" "Normal"     20.0000  47.7000 "DFO" "UN"   0.0000   4.6400   0.0035   0.0000   0.0000   0.0000   0.0000   1.0000   1.0000 "If Agcable" "NO " "NO " "NO " "NO " "NO "      1 100.0000 "" "" "" "" "" "" "" "" "" "" "" "" "" "" ""     0.000000     0.000000     0.000000
    23 "8" "Closed"   43.0868   -0.4848 "YES" "YES"   20.0000   47.2000    0.0000 "YES" 1.040000     23   -8.5000   14.2000  100.0000 "NO " "NO"       0.000  0.000   51.9000   0.00000   1.00000   0.00000   0.00000   1.00000      1      1      1 "" "" "NO" "Normal"     20.0000  47.2000 "DFO" "UN"   0.0000   4.6300   0.0048   0.0000   0.0000   0.0000   0.0000   1.0000   1.0000 "If Agcable" "NO " "NO " "NO " "NO " "NO "      1 100.0000 "" "" "" "" "" "" "" "" "" "" "" "" "" "" ""     0.000000     0.000000     0.000000
    23 "9" "Closed"   12.4770   -0.4848 "YES" "YES"    0.0000   14.7000    0.0000 "YES" 1.040000     23   -2.6000    4.4000  100.0000 "NO " "NO"       0.000  0.000   16.2000   0.00000   1.00000   0.00000   0.00000   1.00000      1      1      1 "" "" "NO" "Normal"      0.0000  14.7000 "SUN" "UN"   0.0000   0.0000   0.0000   0.0000   0.0000   0.0000   0.0000   1.0000   1.0000 "If Agcable" "NO " "NO " "NO " "NO " "NO "      1 100.0000 "" "" "" "" "" "" "" "" "" "" "" "" "" "" ""     0.000000     0.000000     0.000000
    26 "1" "Closed"   20.0000    6.0000 "YES" "YES"    0.0000   20.0000    0.0000 "YES" 1.040000     26   -3.6000    6.0000  100.0000 "NO " "NO"       0.000  0.000   22.0000   0.00000   1.00000   0.00000   0.00000   1.00000      1      1      1 "" "" "NO" "Normal"      0.0000  20.0000 "SUN" "UN"   0.0000   0.0000   0.0000   0.0000   0.0000   0.0000   0.0000   1.0000   1.0000 "If Agcable" "NO " "NO " "NO " "NO " "NO "      1 100.0000 "" "" "" "" "" "" "" "" "" "" "" "" "" "" ""     0.000000     0.000000     0.000000
    26 "2" "Closed"   10.2000    3.1000 "YES" "YES"    0.0000   10.2000    0.0000 "YES" 1.040000     26   -1.9000    3.1000  100.0000 "NO " "NO"       0.000  0.000   11.2000   0.00000   1.00000   0.00000   0.00000   1.00000      1      1      1 "" "" "NO" "Normal"      0.0000  10.2000 "SUN" "UN"   0.0000   0.0000   0.0000   0.0000   0.0000   0.0000   0.0000   1.0000   1.0000 "If Agcable" "NO " "NO " "NO " "NO " "NO "      1 100.0000 "" "" "" "" "" "" "" "" "" "" "" "" "" "" ""     0.000000     0.000000     0.000000
    27 "1" "Closed"   30.0000   -5.4000 "YES" "YES"    0.0000   30.0000    0.0000 "YES" 1.040000     27   -5.4000    9.0000  100.0000 "NO " "NO"       0.000  0.000   33.0000   0.00000   1.00000   0.00000   0.00000   1.00000      1      1      1 "" "" "NO" "Normal"      0.0000  30.0000 "WND" "UN"   0.0000   0.0000   0.0000   0.0000   0.0000   0.0000   0.0000   1.0000   1.0000 "If Agcable" "NO " "NO " "NO " "NO " "NO "      1 100.0000 "" "" "" "" "" "" "" "" "" "" "" "" "" "" ""     0.000000     0.000000     0.000000
    27 "2" "Closed"   27.6000   -5.0000 "YES" "YES"    1.0000   27.6000    0.0000 "YES" 1.040000     27   -5.0000    8.3000  100.0000 "NO " "NO"       0.000  0.000   30.4000   0.00000   1.00000   0.00000   0.00000   1.00000      1      1      1 "" "" "NO" "Normal"      1.0000  27.6000 "WND" "UN"   0.0000   0.0000   0.0000   0.0000   0.0000   0.0000   0.0000   1.0000   1.0000 "If Agcable" "NO " "NO " "NO " "NO " "NO "      1 100.0000 "" "" "" "" "" "" "" "" "" "" "" "" "" "" ""     0.000000     0.000000     0.000000
    28 "1" "Closed"   46.3000   -5.8391 "YES" "YES"    0.0000   49.0000    0.0000 "YES" 1.040000     28   -8.8000   14.7000  100.0000 "NO " "NO"       0.000  0.000   53.9000   0.00000   1.00000   0.00000   0.00000   1.00000      1      1      1 "" "" "NO" "Normal"      0.0000  49.0000 "SUN" "UN"   0.0000   0.0000   0.0000   0.0000   0.0000   0.0000   0.0000   1.0000   1.0000 "If Agcable" "NO " "NO " "NO " "NO " "NO "      1 100.0000 "" "" "" "" "" "" "" "" "" "" "" "" "" "" ""     0.000000     0.000000     0.000000
    28 "2" "Closed"   69.0000   -5.8391 "YES" "YES"    0.0000   69.0000    0.0000 "YES" 1.040000     28  -12.4000   20.7000  100.0000 "NO " "NO"       0.000  0.000   75.9000   0.00000   1.00000   0.00000   0.00000   1.00000      1      1      1 "" "" "NO" "Normal"      0.0000  69.0000 "WND" "UN"   0.0000   0.0000   0.0000   0.0000   0.0000   0.0000   0.0000   1.0000   1.0000 "If Agcable" "NO " "NO " "NO " "NO " "NO "      1 100.0000 "" "" "" "" "" "" "" "" "" "" "" "" "" "" ""     0.000000     0.000000     0.000000
    33 "1" "Closed"   27.6000    8.3000 "YES" "YES"    0.0000   27.6000    0.0000 "YES" 1.040000     33   -5.0000    8.3000  100.0000 "NO " "NO"       0.000  0.000   30.4000   0.00000   1.00000   0.00000   0.00000   1.00000      1      1      1 "" "" "NO" "Normal"      0.0000  27.6000 "SUN" "UN"   0.0000   0.0000   0.0000   0.0000   0.0000   0.0000   0.0000   1.0000   1.0000 "If Agcable" "NO " "NO " "NO " "NO " "NO "      1 100.0000 "" "" "" "" "" "" "" "" "" "" "" "" "" "" ""     0.000000     0.000000     0.000000
    34 "1" "Closed"    7.2200   -1.0593 "YES" "YES"    2.5000    8.4000    0.0000 "YES" 1.040000     34   -1.5000    2.5000  100.0000 "NO " "NO"       0.000  0.000    9.2000   0.00000   1.00000   0.00000   0.00000   1.00000      1      1      1 "" "" "NO" "Normal"      2.5000   8.4000 "OBL" "UN"   0.0000   4.5800   0.0029   0.0000   0.0000   0.0000   0.0000   1.0000   1.0000 "If Agcable" "NO " "NO " "NO " "NO " "NO "      1 100.0000 "" "" "" "" "" "" "" "" "" "" "" "" "" "" ""     0.000000     0.000000     0.000000
    34 "2" "Closed"    6.0400   -1.0593 "YES" "YES"    2.5000    8.4000    0.0000 "YES" 1.040000     34   -1.5000    2.5000  100.0000 "NO " "NO"       0.000  0.000    9.2000   0.00000   1.00000   0.00000   0.00000   1.00000      1      1      1 "" "" "NO" "Normal"      2.5000   8.4000 "OBL" "UN"   0.0000   4.5800   0.0034   0.0000   0.0000   0.0000   0.0000   1.0000   1.0000 "If Agcable" "NO " "NO " "NO " "NO " "NO "      1 100.0000 "" "" "" "" "" "" "" "" "" "" "" "" "" "" ""     0.000000     0.000000     0.000000
    34 "3" "Closed"    6.0400   -1.0593 "YES" "YES"    2.5000    8.4000    0.0000 "YES" 1.040000     34   -1.5000    2.5000  100.0000 "NO " "NO"       0.000  0.000    9.2000   0.00000   1.00000   0.00000   0.00000   1.00000      1      1      1 "" "" "NO" "Normal"      2.5000   8.4000 "OBL" "UN"   0.0000   4.5800   0.0035   0.0000   0.0000   0.0000   0.0000   1.0000   1.0000 "If Agcable" "NO " "NO " "NO " "NO " "NO "      1 100.0000 "" "" "" "" "" "" "" "" "" "" "" "" "" "" ""     0.000000     0.000000     0.000000
    34 "4" "Closed"    6.0400   -1.0593 "YES" "YES"    2.5000    8.4000    0.0000 "YES" 1.040000     34   -1.5000    2.5000  100.0000 "NO " "NO"       0.000  0.000    9.2000   0.00000   1.00000   0.00000   0.00000   1.00000      1      1      1 "" "" "NO" "Normal"      2.5000   8.4000 "OBL" "UN"   0.0000   4.5800   0.0031   0.0000   0.0000   0.0000   0.0000   1.0000   1.0000 "If Agcable" "NO " "NO " "NO " "NO " "NO "      1 100.0000 "" "" "" "" "" "" "" "" "" "" "" "" "" "" ""     0.000000     0.000000     0.000000
    34 "5" "Closed"    6.0088   -1.0593 "YES" "YES"    2.5000    8.4000    0.0000 "YES" 1.040000     34   -1.5000    2.5000  100.0000 "NO " "NO"       0.000  0.000    9.2000   0.00000   1.00000   0.00000   0.00000   1.00000      1      1      1 "" "" "NO" "Normal"      2.5000   8.4000 "OBL" "UN"   0.0000   4.5800   0.0036   0.0000   0.0000   0.0000   0.0000   1.0000   1.0000 "If Agcable" "NO " "NO " "NO " "NO " "NO "      1 100.0000 "" "" "" "" "" "" "" "" "" "" "" "" "" "" ""     0.000000     0.000000     0.000000
    34 "6" "Closed"    7.2200   -1.0593 "YES" "YES"    2.5000    8.4000    0.0000 "YES" 1.040000     34   -1.5000    2.5000  100.0000 "NO " "NO"       0.000  0.000    9.2000   0.00000   1.00000   0.00000   0.00000   1.00000      1      1      1 "" "" "NO" "Normal"      2.5000   8.4000 "OBL" "UN"   0.0000   4.5800   0.0027   0.0000   0.0000   0.0000   0.0000   1.0000   1.0000 "If Agcable" "NO " "NO " "NO " "NO " "NO "      1 100.0000 "" "" "" "" "" "" "" "" "" "" "" "" "" "" ""     0.000000     0.000000     0.000000
    35 "1" "Closed"   58.0000   -0.3565 "YES" "YES"    5.0000   58.0000    0.0000 "YES" 1.040000     35  -10.4000   17.4000  100.0000 "NO " "NO"       0.000  0.000   63.8000   0.00000   1.00000   0.00000   0.00000   1.00000      1      1      1 "" "" "NO" "Normal"      5.0000  58.0000 "OBL" "UN"   0.0000   4.6500   0.0043   0.0000   0.0000   0.0000   0.0000   1.0000   1.0000 "If Agcable" "NO " "NO " "NO " "NO " "NO "      1 100.0000 "" "" "" "" "" "" "" "" "" "" "" "" "" "" ""     0.000000     0.000000     0.000000
    35 "2" "Closed"   28.0000   -0.3565 "YES" "YES"    5.0000   28.0000    0.0000 "YES" 1.040000     35   -5.0000    8.4000  100.0000 "NO " "NO"       0.000  0.000   30.8000   0.00000   1.00000   0.00000   0.00000   1.00000      1      1      1 "" "" "NO" "Normal"      5.0000  28.0000 "OBL" "UN"   0.0000   4.6100   0.0045   0.0000   0.0000   0.0000   0.0000   1.0000   1.0000 "If Agcable" "NO " "NO " "NO " "NO " "NO "      1 100.0000 "" "" "" "" "" "" "" "" "" "" "" "" "" "" ""     0.000000     0.000000     0.000000
    35 "3" "Open"      0.0000    0.0000 "YES" "YES"   63.0000  180.0000    0.0000 "YES" 1.040000     35  -32.4000   54.0000  100.0000 "NO " "NO"       0.000  0.000  198.0000   0.00000   1.00000   0.00000   0.00000   1.00000      1      1      1 "" "" "NO" "Normal"     63.0000 180.0000 "BIT" "UN"   0.0000   4.8100   0.0065   0.0000   0.0000   0.0000   0.0000   1.0000   1.0000 "If Agcable" "NO " "NO " "NO " "NO " "NO "      1 100.0000 "" "" "" "" "" "" "" "" "" "" "" "" "" "" ""     0.000000     0.000000     0.000000
    35 "4" "Closed"   20.0000   -0.3565 "YES" "YES"    5.0000   20.0000    0.0000 "YES" 1.040000     35   -3.6000    6.0000  100.0000 "NO " "NO"       0.000  0.000   22.0000   0.00000   1.00000   0.00000   0.00000   1.00000      1      1      1 "" "" "NO" "Normal"      5.0000  20.0000 "DFO" "UN"   0.0000   4.6000   0.0030   0.0000   0.0000   0.0000   0.0000   1.0000   1.0000 "If Agcable" "NO " "NO " "NO " "NO " "NO "      1 100.0000 "" "" "" "" "" "" "" "" "" "" "" "" "" "" ""     0.000000     0.000000     0.000000
    35 "5" "Closed"   67.0000   -0.3565 "YES" "YES"   40.0000   85.0000    0.0000 "YES" 1.040000     35  -15.3000   25.5000  100.0000 "NO " "NO"       0.000  0.000   93.5000   0.00000   1.00000   0.00000   0.00000   1.00000      1      1      1 "" "" "NO" "Normal"     40.0000  85.0000 "DFO" "UN"   0.0000   4.6900   0.0038   0.0000   0.0000   0.0000   0.0000   1.0000   1.0000 "If Agcable" "NO " "NO " "NO " "NO " "NO "      1 100.0000 "" "" "" "" "" "" "" "" "" "" "" "" "" "" ""     0.000000     0.000000     0.000000
    35 "6" "Open"      0.0000    0.0000 "YES" "YES"   40.0000   85.0000    0.0000 "YES" 1.040000     35  -15.3000   25.5000  100.0000 "NO " "NO"       0.000  0.000   93.5000   0.00000   1.00000   0.00000   0.00000   1.00000      1      1      1 "" "" "NO" "Normal"     40.0000  85.0000 "DFO" "UN"   0.0000   4.6900   0.0048   0.0000   0.0000   0.0000   0.0000   1.0000   1.0000 "If Agcable" "NO " "NO " "NO " "NO " "NO "      1 100.0000 "" "" "" "" "" "" "" "" "" "" "" "" "" "" ""     0.000000     0.000000     0.000000
    35 "7" "Closed"   50.0000   -0.3565 "YES" "YES"   10.0000   50.0000    0.0000 "YES" 1.040000     35   -9.0000   15.0000  100.0000 "NO " "NO"       0.000  0.000   55.0000   0.00000   1.00000   0.00000   0.00000   1.00000      1      1      1 "" "" "NO" "Normal"     10.0000  50.0000 "DFO" "UN"   0.0000   4.6400   0.0039   0.0000   0.0000   0.0000   0.0000   1.0000   1.0000 "If Agcable" "NO " "NO " "NO " "NO " "NO "      1 100.0000 "" "" "" "" "" "" "" "" "" "" "" "" "" "" ""     0.000000     0.000000     0.000000
    35 "8" "Closed"   56.2000   -0.3565 "YES" "YES"   42.0000  113.0000    0.0000 "YES" 1.040000     35  -20.3000   33.9000  100.0000 "NO " "NO"       0.000  0.000  124.3000   0.00000   1.00000   0.00000   0.00000   1.00000      1      1      1 "" "" "NO" "Normal"     42.0000 113.0000 "DFO" "UN"   0.0000   4.7200   0.0043   0.0000   0.0000   0.0000   0.0000   1.0000   1.0000 "If Agcable" "NO " "NO " "NO " "NO " "NO "      1 100.0000 "" "" "" "" "" "" "" "" "" "" "" "" "" "" ""     0.000000     0.000000     0.000000
    36 "1" "Closed"    2.0000    1.0000 "YES" "YES"    2.0000    3.2000    0.0000 "YES" 1.040000     36   -0.6000    1.0000  100.0000 "NO " "NO"       0.000  0.000    3.5000   0.00000   1.00000   0.00000   0.00000   1.00000      1      1      1 "" "" "NO" "Normal"      2.0000   3.2000 "DFO" "UN"   0.0000   4.5800   0.0033   0.0000   0.0000   0.0000   0.0000   1.0000   1.0000 "If Agcable" "NO " "NO " "NO " "NO " "NO "      1 100.0000 "" "" "" "" "" "" "" "" "" "" "" "" "" "" ""     0.000000     0.000000     0.000000
    36 "2" "Closed"    2.1013    1.0000 "YES" "YES"    2.0000    3.2000    0.0000 "YES" 1.040000     36   -0.6000    1.0000  100.0000 "NO " "NO"       0.000  0.000    3.5000   0.00000   1.00000   0.00000   0.00000   1.00000      1      1      1 "" "" "NO" "Normal"      2.0000   3.2000 "DFO" "UN"   0.0000   4.5800   0.0023   0.0000   0.0000   0.0000   0.0000   1.0000   1.0000 "If Agcable" "NO " "NO " "NO " "NO " "NO "      1 100.0000 "" "" "" "" "" "" "" "" "" "" "" "" "" "" ""     0.000000     0.000000     0.000000
    36 "3" "Closed"    2.0000    1.0000 "YES" "YES"    2.0000    3.2000    0.0000 "YES" 1.040000     36   -0.6000    1.0000  100.0000 "NO " "NO"       0.000  0.000    3.5000   0.00000   1.00000   0.00000   0.00000   1.00000      1      1      1 "" "" "NO" "Normal"      2.0000   3.2000 "DFO" "UN"   0.0000   4.5800   0.0032   0.0000   0.0000   0.0000   0.0000   1.0000   1.0000 "If Agcable" "NO " "NO " "NO " "NO " "NO "      1 100.0000 "" "" "" "" "" "" "" "" "" "" "" "" "" "" ""     0.000000     0.000000     0.000000
    36 "4" "Closed"    2.4800    1.0000 "YES" "YES"    2.0000    3.2000    0.0000 "YES" 1.040000     36   -0.6000    1.0000  100.0000 "NO " "NO"       0.000  0.000    3.5000   0.00000   1.00000   0.00000   0.00000   1.00000      1      1      1 "" "" "NO" "Normal"      2.0000   3.2000 "DFO" "UN"   0.0000   4.5800   0.0022   0.0000   0.0000   0.0000   0.0000   1.0000   1.0000 "If Agcable" "NO " "NO " "NO " "NO " "NO "      1 100.0000 "" "" "" "" "" "" "" "" "" "" "" "" "" "" ""     0.000000     0.000000     0.000000
    37 "1" "Open"      0.0000    0.0000 "YES" "YES"   45.0000  128.7000    0.0000 "YES" 1.040000     37  -23.2000   38.6000  100.0000 "NO " "NO"       0.000  0.000  141.6000   0.00000   1.00000   0.00000   0.00000   1.00000      1      1      1 "" "" "NO" "Normal"     45.0000 128.7000 "DFO" "UN"   0.0000   4.7400   0.0062   0.0000   0.0000   0.0000   0.0000   1.0000   1.0000 "If Agcable" "NO " "NO " "NO " "NO " "NO "      1 100.0000 "" "" "" "" "" "" "" "" "" "" "" "" "" "" ""     0.000000     0.000000     0.000000
    37 "2" "Open"      0.0000    0.0000 "YES" "YES"   55.0000  128.1000    0.0000 "YES" 1.040000     37  -23.0000   38.4000  100.0000 "NO " "NO"       0.000  0.000  140.9000   0.00000   1.00000   0.00000   0.00000   1.00000      1      1      1 "" "" "NO" "Normal"     55.0000 128.1000 "DFO" "UN"   0.0000   4.7400   0.0057   0.0000   0.0000   0.0000   0.0000   1.0000   1.0000 "If Agcable" "NO " "NO " "NO " "NO " "NO "      1 100.0000 "" "" "" "" "" "" "" "" "" "" "" "" "" "" ""     0.000000     0.000000     0.000000
    37 "3" "Closed"   58.3242    4.8817 "YES" "YES"   20.0000   87.2000    0.0000 "YES" 1.040000     37  -15.7000   26.2000  100.0000 "NO " "NO"       0.000  0.000   95.9000   0.00000   1.00000   0.00000   0.00000   1.00000      1      1      1 "" "" "NO" "Normal"     20.0000  87.2000 "DFO" "UN"   0.0000   4.6900   0.0047   0.0000   0.0000   0.0000   0.0000   1.0000   1.0000 "If Agcable" "NO " "NO " "NO " "NO " "NO "      1 100.0000 "" "" "" "" "" "" "" "" "" "" "" "" "" "" ""     0.000000     0.000000     0.000000
    37 "4" "Open"      0.0000    0.0000 "YES" "YES"   20.0000   82.1000    0.0000 "YES" 1.040000     37  -14.8000   24.6000  100.0000 "NO " "NO"       0.000  0.000   90.3000   0.00000   1.00000   0.00000   0.00000   1.00000      1      1      1 "" "" "NO" "Normal"     20.0000  82.1000 "DFO" "UN"   0.0000   4.6800   0.0049   0.0000   0.0000   0.0000   0.0000   1.0000   1.0000 "If Agcable" "NO " "NO " "NO " "NO " "NO "      1 100.0000 "" "" "" "" "" "" "" "" "" "" "" "" "" "" ""     0.000000     0.000000     0.000000
    37 "5" "Closed"   68.4800    4.8817 "YES" "YES"   30.0000   78.1000    0.0000 "YES" 1.040000     37  -14.0000   23.4000  100.0000 "NO " "NO"       0.000  0.000   85.9000   0.00000   1.00000   0.00000   0.00000   1.00000      1      1      1 "" "" "NO" "Normal"     30.0000  78.1000 "DFO" "UN"   0.0000   4.6800   0.0035   0.0000   0.0000   0.0000   0.0000   1.0000   1.0000 "If Agcable" "NO " "NO " "NO " "NO " "NO "      1 100.0000 "" "" "" "" "" "" "" "" "" "" "" "" "" "" ""     0.000000     0.000000     0.000000
...